*SPEF "ieee 1481-1999"
*DESIGN "user_project_wrapper"
*DATE "07:22:12 Wednesday October 29, 2025"
*VENDOR "The OpenROAD Project"
*PROGRAM "OpenROAD"
*VERSION "edf00dff99f6c40d67a30c0e22a8191c5d2ed9d6"
*DESIGN_FLOW "NAME_SCOPE LOCAL" "PIN_CAP NONE"
*DIVIDER /
*DELIMITER :
*BUS_DELIMITER []
*T_UNIT 1 NS
*C_UNIT 1 PF
*R_UNIT 1 OHM
*L_UNIT 1 HENRY

*NAME_MAP
*1 analog_io[0]
*2 analog_io[10]
*3 analog_io[11]
*4 analog_io[12]
*5 analog_io[13]
*6 analog_io[14]
*7 analog_io[15]
*8 analog_io[16]
*9 analog_io[17]
*10 analog_io[18]
*11 analog_io[19]
*12 analog_io[1]
*13 analog_io[20]
*14 analog_io[21]
*15 analog_io[22]
*16 analog_io[23]
*17 analog_io[24]
*18 analog_io[25]
*19 analog_io[26]
*20 analog_io[27]
*21 analog_io[28]
*22 analog_io[2]
*23 analog_io[3]
*24 analog_io[4]
*25 analog_io[5]
*26 analog_io[6]
*27 analog_io[7]
*28 analog_io[8]
*29 analog_io[9]
*30 io_in[0]
*31 io_in[10]
*32 io_in[11]
*33 io_in[12]
*34 io_in[13]
*35 io_in[14]
*36 io_in[15]
*37 io_in[16]
*38 io_in[17]
*39 io_in[18]
*40 io_in[19]
*41 io_in[1]
*42 io_in[20]
*43 io_in[21]
*44 io_in[22]
*45 io_in[23]
*46 io_in[24]
*47 io_in[25]
*48 io_in[26]
*49 io_in[27]
*50 io_in[28]
*51 io_in[29]
*52 io_in[2]
*53 io_in[30]
*54 io_in[31]
*55 io_in[32]
*56 io_in[33]
*57 io_in[34]
*58 io_in[35]
*59 io_in[36]
*60 io_in[37]
*61 io_in[3]
*62 io_in[4]
*63 io_in[5]
*64 io_in[6]
*65 io_in[7]
*66 io_in[8]
*67 io_in[9]
*68 io_oeb[0]
*69 io_oeb[10]
*70 io_oeb[11]
*71 io_oeb[12]
*72 io_oeb[13]
*73 io_oeb[14]
*74 io_oeb[15]
*75 io_oeb[16]
*76 io_oeb[17]
*77 io_oeb[18]
*78 io_oeb[19]
*79 io_oeb[1]
*80 io_oeb[20]
*81 io_oeb[21]
*82 io_oeb[22]
*83 io_oeb[23]
*84 io_oeb[24]
*85 io_oeb[25]
*86 io_oeb[26]
*87 io_oeb[27]
*88 io_oeb[28]
*89 io_oeb[29]
*90 io_oeb[2]
*91 io_oeb[30]
*92 io_oeb[31]
*93 io_oeb[32]
*94 io_oeb[33]
*95 io_oeb[34]
*96 io_oeb[35]
*97 io_oeb[36]
*98 io_oeb[37]
*99 io_oeb[3]
*100 io_oeb[4]
*101 io_oeb[5]
*102 io_oeb[6]
*103 io_oeb[7]
*104 io_oeb[8]
*105 io_oeb[9]
*106 io_out[0]
*107 io_out[10]
*108 io_out[11]
*109 io_out[12]
*110 io_out[13]
*111 io_out[14]
*112 io_out[15]
*113 io_out[16]
*114 io_out[17]
*115 io_out[18]
*116 io_out[19]
*117 io_out[1]
*118 io_out[20]
*119 io_out[21]
*120 io_out[22]
*121 io_out[23]
*122 io_out[24]
*123 io_out[25]
*124 io_out[26]
*125 io_out[27]
*126 io_out[28]
*127 io_out[29]
*128 io_out[2]
*129 io_out[30]
*130 io_out[31]
*131 io_out[32]
*132 io_out[33]
*133 io_out[34]
*134 io_out[35]
*135 io_out[36]
*136 io_out[37]
*137 io_out[3]
*138 io_out[4]
*139 io_out[5]
*140 io_out[6]
*141 io_out[7]
*142 io_out[8]
*143 io_out[9]
*144 la_data_in[0]
*145 la_data_in[100]
*146 la_data_in[101]
*147 la_data_in[102]
*148 la_data_in[103]
*149 la_data_in[104]
*150 la_data_in[105]
*151 la_data_in[106]
*152 la_data_in[107]
*153 la_data_in[108]
*154 la_data_in[109]
*155 la_data_in[10]
*156 la_data_in[110]
*157 la_data_in[111]
*158 la_data_in[112]
*159 la_data_in[113]
*160 la_data_in[114]
*161 la_data_in[115]
*162 la_data_in[116]
*163 la_data_in[117]
*164 la_data_in[118]
*165 la_data_in[119]
*166 la_data_in[11]
*167 la_data_in[120]
*168 la_data_in[121]
*169 la_data_in[122]
*170 la_data_in[123]
*171 la_data_in[124]
*172 la_data_in[125]
*173 la_data_in[126]
*174 la_data_in[127]
*175 la_data_in[12]
*176 la_data_in[13]
*177 la_data_in[14]
*178 la_data_in[15]
*179 la_data_in[16]
*180 la_data_in[17]
*181 la_data_in[18]
*182 la_data_in[19]
*183 la_data_in[1]
*184 la_data_in[20]
*185 la_data_in[21]
*186 la_data_in[22]
*187 la_data_in[23]
*188 la_data_in[24]
*189 la_data_in[25]
*190 la_data_in[26]
*191 la_data_in[27]
*192 la_data_in[28]
*193 la_data_in[29]
*194 la_data_in[2]
*195 la_data_in[30]
*196 la_data_in[31]
*197 la_data_in[32]
*198 la_data_in[33]
*199 la_data_in[34]
*200 la_data_in[35]
*201 la_data_in[36]
*202 la_data_in[37]
*203 la_data_in[38]
*204 la_data_in[39]
*205 la_data_in[3]
*206 la_data_in[40]
*207 la_data_in[41]
*208 la_data_in[42]
*209 la_data_in[43]
*210 la_data_in[44]
*211 la_data_in[45]
*212 la_data_in[46]
*213 la_data_in[47]
*214 la_data_in[48]
*215 la_data_in[49]
*216 la_data_in[4]
*217 la_data_in[50]
*218 la_data_in[51]
*219 la_data_in[52]
*220 la_data_in[53]
*221 la_data_in[54]
*222 la_data_in[55]
*223 la_data_in[56]
*224 la_data_in[57]
*225 la_data_in[58]
*226 la_data_in[59]
*227 la_data_in[5]
*228 la_data_in[60]
*229 la_data_in[61]
*230 la_data_in[62]
*231 la_data_in[63]
*232 la_data_in[64]
*233 la_data_in[65]
*234 la_data_in[66]
*235 la_data_in[67]
*236 la_data_in[68]
*237 la_data_in[69]
*238 la_data_in[6]
*239 la_data_in[70]
*240 la_data_in[71]
*241 la_data_in[72]
*242 la_data_in[73]
*243 la_data_in[74]
*244 la_data_in[75]
*245 la_data_in[76]
*246 la_data_in[77]
*247 la_data_in[78]
*248 la_data_in[79]
*249 la_data_in[7]
*250 la_data_in[80]
*251 la_data_in[81]
*252 la_data_in[82]
*253 la_data_in[83]
*254 la_data_in[84]
*255 la_data_in[85]
*256 la_data_in[86]
*257 la_data_in[87]
*258 la_data_in[88]
*259 la_data_in[89]
*260 la_data_in[8]
*261 la_data_in[90]
*262 la_data_in[91]
*263 la_data_in[92]
*264 la_data_in[93]
*265 la_data_in[94]
*266 la_data_in[95]
*267 la_data_in[96]
*268 la_data_in[97]
*269 la_data_in[98]
*270 la_data_in[99]
*271 la_data_in[9]
*272 la_data_out[0]
*273 la_data_out[100]
*274 la_data_out[101]
*275 la_data_out[102]
*276 la_data_out[103]
*277 la_data_out[104]
*278 la_data_out[105]
*279 la_data_out[106]
*280 la_data_out[107]
*281 la_data_out[108]
*282 la_data_out[109]
*283 la_data_out[10]
*284 la_data_out[110]
*285 la_data_out[111]
*286 la_data_out[112]
*287 la_data_out[113]
*288 la_data_out[114]
*289 la_data_out[115]
*290 la_data_out[116]
*291 la_data_out[117]
*292 la_data_out[118]
*293 la_data_out[119]
*294 la_data_out[11]
*295 la_data_out[120]
*296 la_data_out[121]
*297 la_data_out[122]
*298 la_data_out[123]
*299 la_data_out[124]
*300 la_data_out[125]
*301 la_data_out[126]
*302 la_data_out[127]
*303 la_data_out[12]
*304 la_data_out[13]
*305 la_data_out[14]
*306 la_data_out[15]
*307 la_data_out[16]
*308 la_data_out[17]
*309 la_data_out[18]
*310 la_data_out[19]
*311 la_data_out[1]
*312 la_data_out[20]
*313 la_data_out[21]
*314 la_data_out[22]
*315 la_data_out[23]
*316 la_data_out[24]
*317 la_data_out[25]
*318 la_data_out[26]
*319 la_data_out[27]
*320 la_data_out[28]
*321 la_data_out[29]
*322 la_data_out[2]
*323 la_data_out[30]
*324 la_data_out[31]
*325 la_data_out[32]
*326 la_data_out[33]
*327 la_data_out[34]
*328 la_data_out[35]
*329 la_data_out[36]
*330 la_data_out[37]
*331 la_data_out[38]
*332 la_data_out[39]
*333 la_data_out[3]
*334 la_data_out[40]
*335 la_data_out[41]
*336 la_data_out[42]
*337 la_data_out[43]
*338 la_data_out[44]
*339 la_data_out[45]
*340 la_data_out[46]
*341 la_data_out[47]
*342 la_data_out[48]
*343 la_data_out[49]
*344 la_data_out[4]
*345 la_data_out[50]
*346 la_data_out[51]
*347 la_data_out[52]
*348 la_data_out[53]
*349 la_data_out[54]
*350 la_data_out[55]
*351 la_data_out[56]
*352 la_data_out[57]
*353 la_data_out[58]
*354 la_data_out[59]
*355 la_data_out[5]
*356 la_data_out[60]
*357 la_data_out[61]
*358 la_data_out[62]
*359 la_data_out[63]
*360 la_data_out[64]
*361 la_data_out[65]
*362 la_data_out[66]
*363 la_data_out[67]
*364 la_data_out[68]
*365 la_data_out[69]
*366 la_data_out[6]
*367 la_data_out[70]
*368 la_data_out[71]
*369 la_data_out[72]
*370 la_data_out[73]
*371 la_data_out[74]
*372 la_data_out[75]
*373 la_data_out[76]
*374 la_data_out[77]
*375 la_data_out[78]
*376 la_data_out[79]
*377 la_data_out[7]
*378 la_data_out[80]
*379 la_data_out[81]
*380 la_data_out[82]
*381 la_data_out[83]
*382 la_data_out[84]
*383 la_data_out[85]
*384 la_data_out[86]
*385 la_data_out[87]
*386 la_data_out[88]
*387 la_data_out[89]
*388 la_data_out[8]
*389 la_data_out[90]
*390 la_data_out[91]
*391 la_data_out[92]
*392 la_data_out[93]
*393 la_data_out[94]
*394 la_data_out[95]
*395 la_data_out[96]
*396 la_data_out[97]
*397 la_data_out[98]
*398 la_data_out[99]
*399 la_data_out[9]
*400 la_oenb[0]
*401 la_oenb[100]
*402 la_oenb[101]
*403 la_oenb[102]
*404 la_oenb[103]
*405 la_oenb[104]
*406 la_oenb[105]
*407 la_oenb[106]
*408 la_oenb[107]
*409 la_oenb[108]
*410 la_oenb[109]
*411 la_oenb[10]
*412 la_oenb[110]
*413 la_oenb[111]
*414 la_oenb[112]
*415 la_oenb[113]
*416 la_oenb[114]
*417 la_oenb[115]
*418 la_oenb[116]
*419 la_oenb[117]
*420 la_oenb[118]
*421 la_oenb[119]
*422 la_oenb[11]
*423 la_oenb[120]
*424 la_oenb[121]
*425 la_oenb[122]
*426 la_oenb[123]
*427 la_oenb[124]
*428 la_oenb[125]
*429 la_oenb[126]
*430 la_oenb[127]
*431 la_oenb[12]
*432 la_oenb[13]
*433 la_oenb[14]
*434 la_oenb[15]
*435 la_oenb[16]
*436 la_oenb[17]
*437 la_oenb[18]
*438 la_oenb[19]
*439 la_oenb[1]
*440 la_oenb[20]
*441 la_oenb[21]
*442 la_oenb[22]
*443 la_oenb[23]
*444 la_oenb[24]
*445 la_oenb[25]
*446 la_oenb[26]
*447 la_oenb[27]
*448 la_oenb[28]
*449 la_oenb[29]
*450 la_oenb[2]
*451 la_oenb[30]
*452 la_oenb[31]
*453 la_oenb[32]
*454 la_oenb[33]
*455 la_oenb[34]
*456 la_oenb[35]
*457 la_oenb[36]
*458 la_oenb[37]
*459 la_oenb[38]
*460 la_oenb[39]
*461 la_oenb[3]
*462 la_oenb[40]
*463 la_oenb[41]
*464 la_oenb[42]
*465 la_oenb[43]
*466 la_oenb[44]
*467 la_oenb[45]
*468 la_oenb[46]
*469 la_oenb[47]
*470 la_oenb[48]
*471 la_oenb[49]
*472 la_oenb[4]
*473 la_oenb[50]
*474 la_oenb[51]
*475 la_oenb[52]
*476 la_oenb[53]
*477 la_oenb[54]
*478 la_oenb[55]
*479 la_oenb[56]
*480 la_oenb[57]
*481 la_oenb[58]
*482 la_oenb[59]
*483 la_oenb[5]
*484 la_oenb[60]
*485 la_oenb[61]
*486 la_oenb[62]
*487 la_oenb[63]
*488 la_oenb[64]
*489 la_oenb[65]
*490 la_oenb[66]
*491 la_oenb[67]
*492 la_oenb[68]
*493 la_oenb[69]
*494 la_oenb[6]
*495 la_oenb[70]
*496 la_oenb[71]
*497 la_oenb[72]
*498 la_oenb[73]
*499 la_oenb[74]
*500 la_oenb[75]
*501 la_oenb[76]
*502 la_oenb[77]
*503 la_oenb[78]
*504 la_oenb[79]
*505 la_oenb[7]
*506 la_oenb[80]
*507 la_oenb[81]
*508 la_oenb[82]
*509 la_oenb[83]
*510 la_oenb[84]
*511 la_oenb[85]
*512 la_oenb[86]
*513 la_oenb[87]
*514 la_oenb[88]
*515 la_oenb[89]
*516 la_oenb[8]
*517 la_oenb[90]
*518 la_oenb[91]
*519 la_oenb[92]
*520 la_oenb[93]
*521 la_oenb[94]
*522 la_oenb[95]
*523 la_oenb[96]
*524 la_oenb[97]
*525 la_oenb[98]
*526 la_oenb[99]
*527 la_oenb[9]
*528 user_clock2
*529 user_irq[0]
*530 user_irq[1]
*531 user_irq[2]
*532 wb_clk_i
*533 wb_rst_i
*534 wbs_ack_o
*535 wbs_adr_i[0]
*536 wbs_adr_i[10]
*537 wbs_adr_i[11]
*538 wbs_adr_i[12]
*539 wbs_adr_i[13]
*540 wbs_adr_i[14]
*541 wbs_adr_i[15]
*542 wbs_adr_i[16]
*543 wbs_adr_i[17]
*544 wbs_adr_i[18]
*545 wbs_adr_i[19]
*546 wbs_adr_i[1]
*547 wbs_adr_i[20]
*548 wbs_adr_i[21]
*549 wbs_adr_i[22]
*550 wbs_adr_i[23]
*551 wbs_adr_i[24]
*552 wbs_adr_i[25]
*553 wbs_adr_i[26]
*554 wbs_adr_i[27]
*555 wbs_adr_i[28]
*556 wbs_adr_i[29]
*557 wbs_adr_i[2]
*558 wbs_adr_i[30]
*559 wbs_adr_i[31]
*560 wbs_adr_i[3]
*561 wbs_adr_i[4]
*562 wbs_adr_i[5]
*563 wbs_adr_i[6]
*564 wbs_adr_i[7]
*565 wbs_adr_i[8]
*566 wbs_adr_i[9]
*567 wbs_cyc_i
*568 wbs_dat_i[0]
*569 wbs_dat_i[10]
*570 wbs_dat_i[11]
*571 wbs_dat_i[12]
*572 wbs_dat_i[13]
*573 wbs_dat_i[14]
*574 wbs_dat_i[15]
*575 wbs_dat_i[16]
*576 wbs_dat_i[17]
*577 wbs_dat_i[18]
*578 wbs_dat_i[19]
*579 wbs_dat_i[1]
*580 wbs_dat_i[20]
*581 wbs_dat_i[21]
*582 wbs_dat_i[22]
*583 wbs_dat_i[23]
*584 wbs_dat_i[24]
*585 wbs_dat_i[25]
*586 wbs_dat_i[26]
*587 wbs_dat_i[27]
*588 wbs_dat_i[28]
*589 wbs_dat_i[29]
*590 wbs_dat_i[2]
*591 wbs_dat_i[30]
*592 wbs_dat_i[31]
*593 wbs_dat_i[3]
*594 wbs_dat_i[4]
*595 wbs_dat_i[5]
*596 wbs_dat_i[6]
*597 wbs_dat_i[7]
*598 wbs_dat_i[8]
*599 wbs_dat_i[9]
*600 wbs_dat_o[0]
*601 wbs_dat_o[10]
*602 wbs_dat_o[11]
*603 wbs_dat_o[12]
*604 wbs_dat_o[13]
*605 wbs_dat_o[14]
*606 wbs_dat_o[15]
*607 wbs_dat_o[16]
*608 wbs_dat_o[17]
*609 wbs_dat_o[18]
*610 wbs_dat_o[19]
*611 wbs_dat_o[1]
*612 wbs_dat_o[20]
*613 wbs_dat_o[21]
*614 wbs_dat_o[22]
*615 wbs_dat_o[23]
*616 wbs_dat_o[24]
*617 wbs_dat_o[25]
*618 wbs_dat_o[26]
*619 wbs_dat_o[27]
*620 wbs_dat_o[28]
*621 wbs_dat_o[29]
*622 wbs_dat_o[2]
*623 wbs_dat_o[30]
*624 wbs_dat_o[31]
*625 wbs_dat_o[3]
*626 wbs_dat_o[4]
*627 wbs_dat_o[5]
*628 wbs_dat_o[6]
*629 wbs_dat_o[7]
*630 wbs_dat_o[8]
*631 wbs_dat_o[9]
*632 wbs_sel_i[0]
*633 wbs_sel_i[1]
*634 wbs_sel_i[2]
*635 wbs_sel_i[3]
*636 wbs_stb_i
*637 wbs_we_i
*638 mprj

*PORTS
analog_io[0] I
analog_io[10] I
analog_io[11] I
analog_io[12] I
analog_io[13] I
analog_io[14] I
analog_io[15] I
analog_io[16] I
analog_io[17] I
analog_io[18] I
analog_io[19] I
analog_io[1] I
analog_io[20] I
analog_io[21] I
analog_io[22] I
analog_io[23] I
analog_io[24] I
analog_io[25] I
analog_io[26] I
analog_io[27] I
analog_io[28] I
analog_io[2] I
analog_io[3] I
analog_io[4] I
analog_io[5] I
analog_io[6] I
analog_io[7] I
analog_io[8] I
analog_io[9] I
io_in[0] I
io_in[10] I
io_in[11] I
io_in[12] I
io_in[13] I
io_in[14] I
io_in[15] I
io_in[16] I
io_in[17] I
io_in[18] I
io_in[19] I
io_in[1] I
io_in[20] I
io_in[21] I
io_in[22] I
io_in[23] I
io_in[24] I
io_in[25] I
io_in[26] I
io_in[27] I
io_in[28] I
io_in[29] I
io_in[2] I
io_in[30] I
io_in[31] I
io_in[32] I
io_in[33] I
io_in[34] I
io_in[35] I
io_in[36] I
io_in[37] I
io_in[3] I
io_in[4] I
io_in[5] I
io_in[6] I
io_in[7] I
io_in[8] I
io_in[9] I
io_oeb[0] O
io_oeb[10] O
io_oeb[11] O
io_oeb[12] O
io_oeb[13] O
io_oeb[14] O
io_oeb[15] O
io_oeb[16] O
io_oeb[17] O
io_oeb[18] O
io_oeb[19] O
io_oeb[1] O
io_oeb[20] O
io_oeb[21] O
io_oeb[22] O
io_oeb[23] O
io_oeb[24] O
io_oeb[25] O
io_oeb[26] O
io_oeb[27] O
io_oeb[28] O
io_oeb[29] O
io_oeb[2] O
io_oeb[30] O
io_oeb[31] O
io_oeb[32] O
io_oeb[33] O
io_oeb[34] O
io_oeb[35] O
io_oeb[36] O
io_oeb[37] O
io_oeb[3] O
io_oeb[4] O
io_oeb[5] O
io_oeb[6] O
io_oeb[7] O
io_oeb[8] O
io_oeb[9] O
io_out[0] O
io_out[10] O
io_out[11] O
io_out[12] O
io_out[13] O
io_out[14] O
io_out[15] O
io_out[16] O
io_out[17] O
io_out[18] O
io_out[19] O
io_out[1] O
io_out[20] O
io_out[21] O
io_out[22] O
io_out[23] O
io_out[24] O
io_out[25] O
io_out[26] O
io_out[27] O
io_out[28] O
io_out[29] O
io_out[2] O
io_out[30] O
io_out[31] O
io_out[32] O
io_out[33] O
io_out[34] O
io_out[35] O
io_out[36] O
io_out[37] O
io_out[3] O
io_out[4] O
io_out[5] O
io_out[6] O
io_out[7] O
io_out[8] O
io_out[9] O
la_data_in[0] I
la_data_in[100] I
la_data_in[101] I
la_data_in[102] I
la_data_in[103] I
la_data_in[104] I
la_data_in[105] I
la_data_in[106] I
la_data_in[107] I
la_data_in[108] I
la_data_in[109] I
la_data_in[10] I
la_data_in[110] I
la_data_in[111] I
la_data_in[112] I
la_data_in[113] I
la_data_in[114] I
la_data_in[115] I
la_data_in[116] I
la_data_in[117] I
la_data_in[118] I
la_data_in[119] I
la_data_in[11] I
la_data_in[120] I
la_data_in[121] I
la_data_in[122] I
la_data_in[123] I
la_data_in[124] I
la_data_in[125] I
la_data_in[126] I
la_data_in[127] I
la_data_in[12] I
la_data_in[13] I
la_data_in[14] I
la_data_in[15] I
la_data_in[16] I
la_data_in[17] I
la_data_in[18] I
la_data_in[19] I
la_data_in[1] I
la_data_in[20] I
la_data_in[21] I
la_data_in[22] I
la_data_in[23] I
la_data_in[24] I
la_data_in[25] I
la_data_in[26] I
la_data_in[27] I
la_data_in[28] I
la_data_in[29] I
la_data_in[2] I
la_data_in[30] I
la_data_in[31] I
la_data_in[32] I
la_data_in[33] I
la_data_in[34] I
la_data_in[35] I
la_data_in[36] I
la_data_in[37] I
la_data_in[38] I
la_data_in[39] I
la_data_in[3] I
la_data_in[40] I
la_data_in[41] I
la_data_in[42] I
la_data_in[43] I
la_data_in[44] I
la_data_in[45] I
la_data_in[46] I
la_data_in[47] I
la_data_in[48] I
la_data_in[49] I
la_data_in[4] I
la_data_in[50] I
la_data_in[51] I
la_data_in[52] I
la_data_in[53] I
la_data_in[54] I
la_data_in[55] I
la_data_in[56] I
la_data_in[57] I
la_data_in[58] I
la_data_in[59] I
la_data_in[5] I
la_data_in[60] I
la_data_in[61] I
la_data_in[62] I
la_data_in[63] I
la_data_in[64] I
la_data_in[65] I
la_data_in[66] I
la_data_in[67] I
la_data_in[68] I
la_data_in[69] I
la_data_in[6] I
la_data_in[70] I
la_data_in[71] I
la_data_in[72] I
la_data_in[73] I
la_data_in[74] I
la_data_in[75] I
la_data_in[76] I
la_data_in[77] I
la_data_in[78] I
la_data_in[79] I
la_data_in[7] I
la_data_in[80] I
la_data_in[81] I
la_data_in[82] I
la_data_in[83] I
la_data_in[84] I
la_data_in[85] I
la_data_in[86] I
la_data_in[87] I
la_data_in[88] I
la_data_in[89] I
la_data_in[8] I
la_data_in[90] I
la_data_in[91] I
la_data_in[92] I
la_data_in[93] I
la_data_in[94] I
la_data_in[95] I
la_data_in[96] I
la_data_in[97] I
la_data_in[98] I
la_data_in[99] I
la_data_in[9] I
la_data_out[0] O
la_data_out[100] O
la_data_out[101] O
la_data_out[102] O
la_data_out[103] O
la_data_out[104] O
la_data_out[105] O
la_data_out[106] O
la_data_out[107] O
la_data_out[108] O
la_data_out[109] O
la_data_out[10] O
la_data_out[110] O
la_data_out[111] O
la_data_out[112] O
la_data_out[113] O
la_data_out[114] O
la_data_out[115] O
la_data_out[116] O
la_data_out[117] O
la_data_out[118] O
la_data_out[119] O
la_data_out[11] O
la_data_out[120] O
la_data_out[121] O
la_data_out[122] O
la_data_out[123] O
la_data_out[124] O
la_data_out[125] O
la_data_out[126] O
la_data_out[127] O
la_data_out[12] O
la_data_out[13] O
la_data_out[14] O
la_data_out[15] O
la_data_out[16] O
la_data_out[17] O
la_data_out[18] O
la_data_out[19] O
la_data_out[1] O
la_data_out[20] O
la_data_out[21] O
la_data_out[22] O
la_data_out[23] O
la_data_out[24] O
la_data_out[25] O
la_data_out[26] O
la_data_out[27] O
la_data_out[28] O
la_data_out[29] O
la_data_out[2] O
la_data_out[30] O
la_data_out[31] O
la_data_out[32] O
la_data_out[33] O
la_data_out[34] O
la_data_out[35] O
la_data_out[36] O
la_data_out[37] O
la_data_out[38] O
la_data_out[39] O
la_data_out[3] O
la_data_out[40] O
la_data_out[41] O
la_data_out[42] O
la_data_out[43] O
la_data_out[44] O
la_data_out[45] O
la_data_out[46] O
la_data_out[47] O
la_data_out[48] O
la_data_out[49] O
la_data_out[4] O
la_data_out[50] O
la_data_out[51] O
la_data_out[52] O
la_data_out[53] O
la_data_out[54] O
la_data_out[55] O
la_data_out[56] O
la_data_out[57] O
la_data_out[58] O
la_data_out[59] O
la_data_out[5] O
la_data_out[60] O
la_data_out[61] O
la_data_out[62] O
la_data_out[63] O
la_data_out[64] O
la_data_out[65] O
la_data_out[66] O
la_data_out[67] O
la_data_out[68] O
la_data_out[69] O
la_data_out[6] O
la_data_out[70] O
la_data_out[71] O
la_data_out[72] O
la_data_out[73] O
la_data_out[74] O
la_data_out[75] O
la_data_out[76] O
la_data_out[77] O
la_data_out[78] O
la_data_out[79] O
la_data_out[7] O
la_data_out[80] O
la_data_out[81] O
la_data_out[82] O
la_data_out[83] O
la_data_out[84] O
la_data_out[85] O
la_data_out[86] O
la_data_out[87] O
la_data_out[88] O
la_data_out[89] O
la_data_out[8] O
la_data_out[90] O
la_data_out[91] O
la_data_out[92] O
la_data_out[93] O
la_data_out[94] O
la_data_out[95] O
la_data_out[96] O
la_data_out[97] O
la_data_out[98] O
la_data_out[99] O
la_data_out[9] O
la_oenb[0] I
la_oenb[100] I
la_oenb[101] I
la_oenb[102] I
la_oenb[103] I
la_oenb[104] I
la_oenb[105] I
la_oenb[106] I
la_oenb[107] I
la_oenb[108] I
la_oenb[109] I
la_oenb[10] I
la_oenb[110] I
la_oenb[111] I
la_oenb[112] I
la_oenb[113] I
la_oenb[114] I
la_oenb[115] I
la_oenb[116] I
la_oenb[117] I
la_oenb[118] I
la_oenb[119] I
la_oenb[11] I
la_oenb[120] I
la_oenb[121] I
la_oenb[122] I
la_oenb[123] I
la_oenb[124] I
la_oenb[125] I
la_oenb[126] I
la_oenb[127] I
la_oenb[12] I
la_oenb[13] I
la_oenb[14] I
la_oenb[15] I
la_oenb[16] I
la_oenb[17] I
la_oenb[18] I
la_oenb[19] I
la_oenb[1] I
la_oenb[20] I
la_oenb[21] I
la_oenb[22] I
la_oenb[23] I
la_oenb[24] I
la_oenb[25] I
la_oenb[26] I
la_oenb[27] I
la_oenb[28] I
la_oenb[29] I
la_oenb[2] I
la_oenb[30] I
la_oenb[31] I
la_oenb[32] I
la_oenb[33] I
la_oenb[34] I
la_oenb[35] I
la_oenb[36] I
la_oenb[37] I
la_oenb[38] I
la_oenb[39] I
la_oenb[3] I
la_oenb[40] I
la_oenb[41] I
la_oenb[42] I
la_oenb[43] I
la_oenb[44] I
la_oenb[45] I
la_oenb[46] I
la_oenb[47] I
la_oenb[48] I
la_oenb[49] I
la_oenb[4] I
la_oenb[50] I
la_oenb[51] I
la_oenb[52] I
la_oenb[53] I
la_oenb[54] I
la_oenb[55] I
la_oenb[56] I
la_oenb[57] I
la_oenb[58] I
la_oenb[59] I
la_oenb[5] I
la_oenb[60] I
la_oenb[61] I
la_oenb[62] I
la_oenb[63] I
la_oenb[64] I
la_oenb[65] I
la_oenb[66] I
la_oenb[67] I
la_oenb[68] I
la_oenb[69] I
la_oenb[6] I
la_oenb[70] I
la_oenb[71] I
la_oenb[72] I
la_oenb[73] I
la_oenb[74] I
la_oenb[75] I
la_oenb[76] I
la_oenb[77] I
la_oenb[78] I
la_oenb[79] I
la_oenb[7] I
la_oenb[80] I
la_oenb[81] I
la_oenb[82] I
la_oenb[83] I
la_oenb[84] I
la_oenb[85] I
la_oenb[86] I
la_oenb[87] I
la_oenb[88] I
la_oenb[89] I
la_oenb[8] I
la_oenb[90] I
la_oenb[91] I
la_oenb[92] I
la_oenb[93] I
la_oenb[94] I
la_oenb[95] I
la_oenb[96] I
la_oenb[97] I
la_oenb[98] I
la_oenb[99] I
la_oenb[9] I
user_clock2 I
user_irq[0] O
user_irq[1] O
user_irq[2] O
wb_clk_i I
wb_rst_i I
wbs_ack_o O
wbs_adr_i[0] I
wbs_adr_i[10] I
wbs_adr_i[11] I
wbs_adr_i[12] I
wbs_adr_i[13] I
wbs_adr_i[14] I
wbs_adr_i[15] I
wbs_adr_i[16] I
wbs_adr_i[17] I
wbs_adr_i[18] I
wbs_adr_i[19] I
wbs_adr_i[1] I
wbs_adr_i[20] I
wbs_adr_i[21] I
wbs_adr_i[22] I
wbs_adr_i[23] I
wbs_adr_i[24] I
wbs_adr_i[25] I
wbs_adr_i[26] I
wbs_adr_i[27] I
wbs_adr_i[28] I
wbs_adr_i[29] I
wbs_adr_i[2] I
wbs_adr_i[30] I
wbs_adr_i[31] I
wbs_adr_i[3] I
wbs_adr_i[4] I
wbs_adr_i[5] I
wbs_adr_i[6] I
wbs_adr_i[7] I
wbs_adr_i[8] I
wbs_adr_i[9] I
wbs_cyc_i I
wbs_dat_i[0] I
wbs_dat_i[10] I
wbs_dat_i[11] I
wbs_dat_i[12] I
wbs_dat_i[13] I
wbs_dat_i[14] I
wbs_dat_i[15] I
wbs_dat_i[16] I
wbs_dat_i[17] I
wbs_dat_i[18] I
wbs_dat_i[19] I
wbs_dat_i[1] I
wbs_dat_i[20] I
wbs_dat_i[21] I
wbs_dat_i[22] I
wbs_dat_i[23] I
wbs_dat_i[24] I
wbs_dat_i[25] I
wbs_dat_i[26] I
wbs_dat_i[27] I
wbs_dat_i[28] I
wbs_dat_i[29] I
wbs_dat_i[2] I
wbs_dat_i[30] I
wbs_dat_i[31] I
wbs_dat_i[3] I
wbs_dat_i[4] I
wbs_dat_i[5] I
wbs_dat_i[6] I
wbs_dat_i[7] I
wbs_dat_i[8] I
wbs_dat_i[9] I
wbs_dat_o[0] O
wbs_dat_o[10] O
wbs_dat_o[11] O
wbs_dat_o[12] O
wbs_dat_o[13] O
wbs_dat_o[14] O
wbs_dat_o[15] O
wbs_dat_o[16] O
wbs_dat_o[17] O
wbs_dat_o[18] O
wbs_dat_o[19] O
wbs_dat_o[1] O
wbs_dat_o[20] O
wbs_dat_o[21] O
wbs_dat_o[22] O
wbs_dat_o[23] O
wbs_dat_o[24] O
wbs_dat_o[25] O
wbs_dat_o[26] O
wbs_dat_o[27] O
wbs_dat_o[28] O
wbs_dat_o[29] O
wbs_dat_o[2] O
wbs_dat_o[30] O
wbs_dat_o[31] O
wbs_dat_o[3] O
wbs_dat_o[4] O
wbs_dat_o[5] O
wbs_dat_o[6] O
wbs_dat_o[7] O
wbs_dat_o[8] O
wbs_dat_o[9] O
wbs_sel_i[0] I
wbs_sel_i[1] I
wbs_sel_i[2] I
wbs_sel_i[3] I
wbs_stb_i I
wbs_we_i I

*D_NET *1 0.295337
*CONN
*P analog_io[0] I
*I *638:Iref I *D Neuromorphic_X1_wb
*CAP
1 analog_io[0] 0.00240213
2 *638:Iref 0.016541
3 *1:17 0.145266
4 *1:15 0.131128
5 *638:Iref *23:9 0
6 *1:17 *28:9 0
*RES
1 analog_io[0] *1:15 7.3954 
2 *1:15 *1:17 259.092 
3 *1:17 *638:Iref 48.4975 
*END

*D_NET *2 0.306932
*CONN
*P analog_io[10] I
*I *638:Vcc_L I *D Neuromorphic_X1_wb
*CAP
1 analog_io[10] 0.0858862
2 *638:Vcc_L 0.00233454
3 *2:9 0.0645788
4 *2:7 0.0622442
5 *2:5 0.0858862
6 *638:Vcc_L *638:Vcc_Body 0.00600202
7 *638:Vcc_L *26:9 0
8 *2:9 *28:9 0
*RES
1 analog_io[10] *2:5 1523.42 
2 *2:5 *2:7 0.5 
3 *2:7 *2:9 169.157 
4 *2:9 *638:Vcc_L 11.7185 
*END

*D_NET *3 0.280228
*CONN
*P analog_io[11] I
*I *638:Vcc_Body I *D Neuromorphic_X1_wb
*CAP
1 analog_io[11] 0.0768784
2 *638:Vcc_Body 0.0131478
3 *3:9 0.0602346
4 *3:7 0.0470868
5 *3:5 0.0768784
6 *638:Vcc_L *638:Vcc_Body 0.00600202
*RES
1 analog_io[11] *3:5 1363.28 
2 *3:5 *3:7 0.5 
3 *3:7 *3:9 127.904 
4 *3:9 *638:Vcc_Body 41.4345 
*END

*D_NET *4 0.312359
*CONN
*P analog_io[12] I
*I *638:Vcc_wl_read I *D Neuromorphic_X1_wb
*CAP
1 analog_io[12] 8.68061e-05
2 *638:Vcc_wl_read 0
3 *4:17 0.0996564
4 *4:15 0.0996564
5 *4:13 0.0487692
6 *4:11 0.0488561
7 *4:17 *638:Vcc_wl_set 0.0153339
*RES
1 analog_io[12] *4:11 2.4725 
2 *4:11 *4:13 123.418 
3 *4:13 *4:15 0.5 
4 *4:15 *4:17 282.986 
5 *4:17 *638:Vcc_wl_read 0.5 
*END

*D_NET *12 0.201926
*CONN
*P analog_io[1] I
*I *638:Vcc_read I *D Neuromorphic_X1_wb
*CAP
1 analog_io[1] 0.0822996
2 *638:Vcc_read 0
3 *12:9 0.0176384
4 *12:7 0.0176384
5 *12:5 0.0822996
6 *12:9 *638:Vcc_reset 0.00204957
7 *12:9 *638:Vcc_set 0
*RES
1 analog_io[1] *12:5 223.297 
2 *12:5 *12:7 0.5 
3 *12:7 *12:9 51.8041 
4 *12:9 *638:Vcc_read 0.5 
*END

*D_NET *22 0.281207
*CONN
*P analog_io[2] I
*I *638:Vcomp I *D Neuromorphic_X1_wb
*CAP
1 analog_io[2] 0.0960844
2 *638:Vcomp 0.000522348
3 *22:9 0.0445192
4 *22:7 0.0439968
5 *22:5 0.0960844
*RES
1 analog_io[2] *22:5 260.588 
2 *22:5 *22:7 0.5 
3 *22:7 *22:9 109.179 
4 *22:9 *638:Vcomp 2.09093 
*END

*D_NET *23 0.29853
*CONN
*P analog_io[3] I
*I *638:Bias_comp2 I *D Neuromorphic_X1_wb
*CAP
1 analog_io[3] 0.0950934
2 *638:Bias_comp2 0.00266727
3 *23:9 0.0541718
4 *23:7 0.0515045
5 *23:5 0.0950934
6 *23:9 *26:9 0
7 *638:Iref *23:9 0
*RES
1 analog_io[3] *23:5 258.257 
2 *23:5 *23:7 0.5 
3 *23:7 *23:9 142.771 
4 *23:9 *638:Bias_comp2 8.12533 
*END

*D_NET *25 0.366416
*CONN
*P analog_io[5] I
*I *638:Vcc_wl_set I *D Neuromorphic_X1_wb
*CAP
1 analog_io[5] 0.00160585
2 *638:Vcc_wl_set 0.00322128
3 *25:13 0.10964
4 *25:11 0.106419
5 *25:9 0.0580285
6 *25:7 0.0596344
7 *638:Vcc_wl_set *638:Vcc_wl_reset 0.012532
8 *25:13 *29:9 0
9 *4:17 *638:Vcc_wl_set 0.0153339
*RES
1 analog_io[5] *25:7 4.3646 
2 *25:7 *25:9 158.179 
3 *25:9 *25:11 0.5 
4 *25:11 *25:13 288.808 
5 *25:13 *638:Vcc_wl_set 28.5145 
*END

*D_NET *26 0.365928
*CONN
*P analog_io[6] I
*I *638:Vbias I *D Neuromorphic_X1_wb
*CAP
1 analog_io[6] 0.0947291
2 *638:Vbias 0
3 *26:9 0.0882348
4 *26:7 0.0882348
5 *26:5 0.0947291
6 *638:Vcc_L *26:9 0
7 *23:9 *26:9 0
*RES
1 analog_io[6] *26:5 257.325 
2 *26:5 *26:7 0.5 
3 *26:7 *26:9 242.848 
4 *26:9 *638:Vbias 0.5 
*END

*D_NET *27 0.406444
*CONN
*P analog_io[7] I
*I *638:Vcc_wl_reset I *D Neuromorphic_X1_wb
*CAP
1 analog_io[7] 0.105385
2 *638:Vcc_wl_reset 0.00733039
3 *27:9 0.0915708
4 *27:7 0.0842404
5 *27:5 0.105385
6 *638:Vcc_wl_set *638:Vcc_wl_reset 0.012532
*RES
1 analog_io[7] *27:5 286.225 
2 *27:5 *27:7 0.5 
3 *27:7 *27:9 229.842 
4 *27:9 *638:Vcc_wl_reset 30.2635 
*END

*D_NET *28 0.357434
*CONN
*P analog_io[8] I
*I *638:Vcc_set I *D Neuromorphic_X1_wb
*CAP
1 analog_io[8] 0.0861607
2 *638:Vcc_set 0.00537724
3 *28:9 0.0860263
4 *28:7 0.0806491
5 *28:5 0.0861607
6 *638:Vcc_set *638:Vcc_reset 0.0130603
7 *1:17 *28:9 0
8 *2:9 *28:9 0
9 *12:9 *638:Vcc_set 0
*RES
1 analog_io[8] *28:5 1528.52 
2 *28:5 *28:7 0.5 
3 *28:7 *28:9 219.033 
4 *28:9 *638:Vcc_set 25.0692 
*END

*D_NET *29 0.327378
*CONN
*P analog_io[9] I
*I *638:Vcc_reset I *D Neuromorphic_X1_wb
*CAP
1 analog_io[9] 0.0847551
2 *638:Vcc_reset 0.00583154
3 *29:9 0.0713791
4 *29:7 0.0655475
5 *29:5 0.0847551
6 *638:Vcc_set *638:Vcc_reset 0.0130603
7 *12:9 *638:Vcc_reset 0.00204957
8 *25:13 *29:9 0
*RES
1 analog_io[9] *29:5 1503.02 
2 *29:5 *29:7 0.5 
3 *29:7 *29:9 177.839 
4 *29:9 *638:Vcc_reset 28.6868 
*END

*D_NET *41 0.250337
*CONN
*P io_in[1] I
*I *638:ScanInDL I *D Neuromorphic_X1_wb
*CAP
1 io_in[1] 0.113236
2 *638:ScanInDL 0.0119331
3 *41:7 0.0119331
4 *41:5 0.113236
5 *638:ScanInDL *638:ScanInCC 0
6 *638:ScanInDL *638:ScanInDR 0
*RES
1 io_in[1] *41:5 284.856 
2 *41:5 *41:7 0.5 
3 *41:7 *638:ScanInDL 212.212 
*END

*D_NET *52 0.217787
*CONN
*P io_in[2] I
*I *638:ScanInDR I *D Neuromorphic_X1_wb
*CAP
1 io_in[2] 0.105368
2 *638:ScanInDR 0.00352583
3 *52:7 0.00352583
4 *52:5 0.105368
5 *638:ScanInDL *638:ScanInDR 0
*RES
1 io_in[2] *52:5 284.389 
2 *52:5 *52:7 0.5 
3 *52:7 *638:ScanInDR 62.7825 
*END

*D_NET *62 0.334782
*CONN
*P io_in[4] I
*I *638:ScanInCC I *D Neuromorphic_X1_wb
*CAP
1 io_in[4] 4.44446e-05
2 *638:ScanInCC 6.10223e-05
3 *62:17 0.0198915
4 *62:15 0.0199336
5 *62:13 0.0663672
6 *62:11 0.066264
7 *62:9 0.009047
8 *62:7 0.00909145
9 *638:ScanInCC *638:wbs_we_i 0
10 *62:9 *63:13 0.0120589
11 *62:13 *63:17 0.0813444
12 *62:17 *638:TM 0.00809586
13 *62:17 *63:17 0.000249752
14 *62:17 *63:59 0.0179733
15 *62:17 *63:95 0.0243594
16 *638:ScanInDL *638:ScanInCC 0
*RES
1 io_in[4] *62:7 0.6064 
2 *62:7 *62:9 235.725 
3 *62:9 *62:11 0.5 
4 *62:11 *62:13 206.098 
5 *62:13 *62:15 0.2964 
6 *62:15 *62:17 79.1933 
7 *62:17 *638:ScanInCC 1.5725 
*END

*D_NET *63 0.324454
*CONN
*P io_in[5] I
*I *638:TM I *D Neuromorphic_X1_wb
*CAP
1 io_in[5] 0.0012095
2 *638:TM 0.00307288
3 *63:95 0.0131939
4 *63:59 0.0175768
5 *63:17 0.0595113
6 *63:15 0.0520556
7 *63:13 0.0162314
8 *63:11 0.0174409
9 *638:TM *638:wbs_dat_i[0] 1.91843e-05
10 *638:TM *638:wbs_stb_i 0
11 *63:95 *638:wbs_dat_i[2] 1.91843e-05
12 *63:95 *625:11 4.15225e-05
13 *62:9 *63:13 0.0120589
14 *62:13 *63:17 0.0813444
15 *62:17 *638:TM 0.00809586
16 *62:17 *63:17 0.000249752
17 *62:17 *63:59 0.0179733
18 *62:17 *63:95 0.0243594
*RES
1 io_in[5] *63:11 22.1031 
2 *63:11 *63:13 363.135 
3 *63:13 *63:15 0.5 
4 *63:15 *63:17 208.05 
5 *63:17 *63:59 38.5771 
6 *63:59 *63:95 44.0552 
7 *63:95 *638:TM 15.4068 
*END

*D_NET *106 0.251414
*CONN
*P io_out[0] O
*I *638:ScanOutCC O *D Neuromorphic_X1_wb
*CAP
1 io_out[0] 0.100901
2 *638:ScanOutCC 1.23933e-05
3 *106:9 0.100901
4 *106:7 0.0176772
5 *106:5 0.0176896
6 io_out[0] *602:9 0.0133115
7 io_out[0] *603:9 0.000372208
8 io_out[0] *604:11 0.00023361
9 io_out[0] *605:9 0.000163654
10 io_out[0] *606:9 0.000151722
11 *106:7 *534:5 0
*RES
1 *638:ScanOutCC *106:5 0.225 
2 *106:5 *106:7 311.715 
3 *106:7 *106:9 0.5 
4 *106:9 io_out[0] 281.418 
*END

*D_NET *532 0.142378
*CONN
*P wb_clk_i I
*I *638:wb_clk_i I *D Neuromorphic_X1_wb
*I *638:user_clk I *D Neuromorphic_X1_wb
*CAP
1 wb_clk_i 0.00161498
2 *638:wb_clk_i 0.000152024
3 *638:user_clk 0.020559
4 *532:13 0.020407
5 *532:11 0.0193531
6 *532:9 0.0209681
7 *532:11 wbs_dat_o[3] 0.00459924
8 *532:11 *533:11 0.000325195
9 *532:11 *534:9 0.0540137
10 *532:11 *622:37 0.000386126
*RES
1 wb_clk_i *532:9 28.7225 
2 *532:9 *532:11 81.4948 
3 *532:11 *532:13 0.5 
4 *532:13 *638:user_clk 357.562 
5 *638:user_clk *638:wb_clk_i 2.76 
*END

*D_NET *533 0.172479
*CONN
*P wb_rst_i I
*I *638:wb_rst_i I *D Neuromorphic_X1_wb
*I *638:user_rst I *D Neuromorphic_X1_wb
*CAP
1 wb_rst_i 0.00167763
2 *638:wb_rst_i 0.000142523
3 *638:user_rst 0.0204804
4 *533:13 0.0203378
5 *533:11 0.00873872
6 *533:9 0.0104164
7 *533:11 wbs_dat_o[3] 0.00464882
8 *533:11 *534:9 0.0546494
9 *533:11 *535:11 0.0414234
10 *533:11 *536:13 0.00181793
11 *533:11 *555:17 0.000180436
12 *533:11 *588:11 0.00764018
13 *532:11 *533:11 0.000325195
*RES
1 wb_rst_i *533:9 29.7425 
2 *533:9 *533:11 81.7279 
3 *533:11 *533:13 0.5 
4 *533:13 *638:user_rst 356.543 
5 *638:user_rst *638:wb_rst_i 2.5875 
*END

*D_NET *534 0.178329
*CONN
*P wbs_ack_o O